<routes>
   <vType id="car_Heterogeneous" accel="2.9" carFollowModel="Heterogeneous" decel="7.5" emergencyDecel="9" heterogeneous_cc_thw="1" heterogeneous_ct_thw="1.5" heterogeneous_tc_thw="0.6" heterogeneous_tt_thw="1.3" laneChangeModel="LC2013" lcAssertive ="3" lcSpeedGain="2.5" length="5" maxSpeed="70" minGap="0.5" sigma="0.5" speedDev="0.2" speedFactor="1.1" tau="1.2" />
   <vType id="truck_Heterogeneous" accel="1.2" carFollowModel="Heterogeneous" decel="4" emergencyDecel="7" heterogeneous_cc_thw="1" heterogeneous_ct_thw="1.5" heterogeneous_tc_thw="0.6" heterogeneous_tt_thw="1.3" laneChangeModel="LC2013" lcAssertive ="2" lcSpeedGain="2.6" length="8" maxSpeed="53" minGap="0.5" sigma="0.5" speedDev="0.2" speedFactor="1.1" tau="2" vClass="truck" />
   <vType id="ds_car" accel="10e6" decel="10e6" sigma="1.0" length="5" maxSpeed="70.00" lcCooperative="0" lcStrategic="0" lcSpeedGain="0"/>

   <route id="route0" color="1,1,0" edges="-1.0.00 -3.0.00 -4.0.00"/>
   <route id="route1" color="1,1,0" edges="-2.0.00 -3.0.00 -4.0.00"/>

   <flow id="flow0" type="car_Heterogeneous" route="route0" begin="0" period="3" number="195"/>
   
</routes>